powerflow/autotest/test_balanced_stepdown_D-grY_phB.glm
// $id$
//	Copyright (C) 2008 Battelle Memorial Institute

// An example case of IEEE 4 node system using balanced step down D-grndY tranformer.
//  Using one phase line at the end node,
//  Using static load at the node 4.


clock {
	timestamp '2000-01-01 0:00:00';
	timezone EST+5EDT;
}

#define stylesheet="C:\Documents and Settings\D3Y074\My Documents\GridLab-D\trunk\VS2005\gridlabd-2_0";
#set relax_naming_rules=1
module powerflow {
	solver_method NR;
	};
module assert;

object overhead_line_conductor:100 {
	geometric_mean_radius 0.0244;
	resistance 0.306;
}

object overhead_line_conductor:101 {
	geometric_mean_radius 0.00814;
	resistance 0.592;
}

object line_spacing:200 {
	distance_AB 2.5;
	distance_BC 4.5;
	distance_AC 7.0;
	distance_AN 5.656854;
	distance_BN 4.272002;
	distance_CN 5.0;
}

object line_spacing:201 {
	distance_BN 4.272002;
}

object line_configuration:300 {
	conductor_A overhead_line_conductor:100;
	conductor_B overhead_line_conductor:100;
	conductor_C overhead_line_conductor:100;
	conductor_N overhead_line_conductor:101;
	spacing line_spacing:200;
}

object line_configuration:301 {
	conductor_B overhead_line_conductor:100;
	conductor_N overhead_line_conductor:101;
	spacing line_spacing:201;
}

object transformer_configuration:400 {
	connect_type DELTA_GWYE;
	install_type PADMOUNT;
	power_rating 6000;
	primary_voltage 12470;
	secondary_voltage 4160;
	resistance 0.01;
	reactance 0.06;
}

object node:1 {
	phases "ABCD";
	bustype SWING;
	voltage_A +7199.558+0.000j;
	voltage_B -3599.779-6235.000j;
	voltage_C -3599.779+6235.000j;
	nominal_voltage 7200;
}

object overhead_line:12 {
	phases "ABCD";
	from node:1;
	to node:2;
	length 2000;
	configuration line_configuration:300;
}

object node:2 {
	phases "ABCD";
	voltage_A +7199.558+0.000j;
	voltage_B -3599.779-6235.000j;
	voltage_C -3599.779+6235.000j;
	nominal_voltage 7200;	
	object complex_assert {
			target voltage_AB;
			within 7;
			value +12368.1+29.8155d  ;
		};
		object complex_assert {
			target voltage_BC;
			within 7;
			value +12431.8-89.846d ;
		};
		object complex_assert {
			target voltage_CA;
			within 7;
			value +12463.4+149.731d ;
		};
}

object transformer:23 {
	phases "ABCN";
	from node:2;
	to node:3;
	configuration transformer_configuration:400;
}

object node:3 {
	phases "ABCN";
	voltage_A +2401.777+0.000j;
	voltage_B -1200.889-2080.000j;
	voltage_C -1200.889+2080.000j;
	nominal_voltage 2400;
	object complex_assert {
			target voltage_AB;
			within 7;
			value +4077.08-3.08673d  ;
		};
		object complex_assert {
			target voltage_BC;
			within 7;
			value +3927.26-120.47d ;
		};
		object complex_assert {
			target voltage_CA;
			within 7;
			value +4161.36+119.984d ;
		};
}

object overhead_line:34 {
	phases "BN";
	from node:3;
	to load:4;
	length 2500;
	configuration line_configuration:301;
}

object load:4 {
	phases "BN";
	voltage_B -1200.889-2080.000j;
	constant_power_B +1800000.000+871779.789j;
	maximum_voltage_error 0.001;
	nominal_voltage 2400;
	object complex_assert {
				target voltage_AB;
				within 5;
				value +1704.61+15.747d  ;
			};
	object complex_assert {	
				target voltage_BC;
				within 5;
				value +1704.61-164.253d ;
			};
	object complex_assert {	
				target voltage_CA;
				within 5;
				value +0+0d ;
			};
}

